LAMMPS (3 Aug 2022)
Loaded 1 plugins from /blue/roitberg/apps/lammps-ani/build/
# variables
variable       lammps_ani_root getenv LAMMPS_ANI_ROOT
# kokkos needs newton_pair on for reverse communication between gpus
variable       newton_pair     index  off
variable       num_models      index  1
variable       datafile        index  20k/water.data

# Intialization
units          real
atom_style     atomic

neighbor       2.0 bin
# check yes = only build if at least one atom has moved half the skin distance or more
neigh_modify   every 10 delay 0 check yes
newton         off off

# Atom Definition
read_data      20k/water.data
Reading data file ...
  triclinic box = (-30 -30 -30) to (30 30 30) with tilt (0 0 0)
  reading atoms ...
  21384 atoms
# replicate      3 3 3
change_box     all boundary p p p
Changing box ...

# pair_style ani 5.1 model_file device num_models ani_aev ani_neighbor
# 0. model_file               = path to the model file
# 1. device                   = cuda/cpu
# 2. num_models (Optional)    = number of models to use, default as -1 to use all models
# 3. ani_aev (Optional)       = cuaev/pyaev, default as cuaev
# 4. ani_neighbor (Optional)  = full/half, default as full nbrlist
# 5. ani_precision (Optional) = single/double, default as single
pair_style     ani 5.1 /blue/roitberg/apps/lammps-ani/tests/ani2x.pt cuda 1 cuaev full single
pair_coeff     * *

# Settings: temperature at 300 K, timestep (0.5 fs)
velocity       all create 300.0 12345 rot yes mom yes dist gaussian
fix            1 all langevin 300.0 300.0 100.0 12345
fix            2 all nve
timestep       0.5

# Output: dump atom positions every 0.5 ps and log info every 0.5 ps
dump           1 all xyz 100 water.xyz
dump_modify    1 element H C N O F S Cl
thermo_style   custom step pe ke etotal temp press vol
thermo         100

# Run the simulation: first run (5 ps)
run            1000
Generated 0 of 21 mixed pair_coeff terms from geometric mixing rule
Step         PotEng         KinEng         TotEng          Temp          Press          Volume
0  -3.4177681e+08  19121.598     -3.4175769e+08  300            4046.7213      216000
Averages over the last 6 of 11 rows, steps 500 to 1000:
PotEng KinEng TotEng Temp Press Volume
-3.41787e+08 19999.7 -3.41767e+08 313.776 4232.54 216000
Loop time of 3.865 on 8 procs for 1000 steps with 21384 atoms

# write final state of simulation
# write_data    water.final
